60

C    0.00000000     3.48074761     0.69573299
C    0.00000000    -3.48074761     0.69573299
C    0.00000000     3.48074761    -0.69573299
C    0.00000000    -3.48074761    -0.69573299
C    1.17751402     3.03097731     1.42347670
C   -1.17751402    -3.03097731     1.42347670
C   -1.17751402     3.03097731    -1.42347670
C    1.17751402    -3.03097731    -1.42347670
C   -1.17751402    -3.03097731    -1.42347670
C    1.17751402     3.03097731    -1.42347670
C    1.17751402    -3.03097731     1.42347670
C   -1.17751402     3.03097731     1.42347670
C    0.72774371     2.30323360     2.60099071
C   -0.72774371    -2.30323360     2.60099071
C   -0.72774371     2.30323360    -2.60099071
C    0.72774371    -2.30323360    -2.60099071
C   -0.72774371    -2.30323360    -2.60099071
C    0.72774371     2.30323360    -2.60099071
C    0.72774371    -2.30323360     2.60099071
C   -0.72774371     2.30323360     2.60099071
C    2.30323360     2.60099071     0.72774371
C   -2.30323360    -2.60099071     0.72774371
C   -2.30323360     2.60099071    -0.72774371
C    2.30323360    -2.60099071    -0.72774371
C   -2.30323360    -2.60099071    -0.72774371
C    2.30323360     2.60099071    -0.72774371
C    2.30323360    -2.60099071     0.72774371
C   -2.30323360     2.60099071     0.72774371
C    1.42347670     1.17751402     3.03097731
C   -1.42347670    -1.17751402     3.03097731
C   -1.42347670     1.17751402    -3.03097731
C    1.42347670    -1.17751402    -3.03097731
C   -1.42347670    -1.17751402    -3.03097731
C    1.42347670     1.17751402    -3.03097731
C    1.42347670    -1.17751402     3.03097731
C   -1.42347670     1.17751402     3.03097731
C    2.60099071     0.72774371     2.30323360
C   -2.60099071    -0.72774371     2.30323360
C   -2.60099071     0.72774371    -2.30323360
C    2.60099071    -0.72774371    -2.30323360
C   -2.60099071    -0.72774371    -2.30323360
C    2.60099071     0.72774371    -2.30323360
C    2.60099071    -0.72774371     2.30323360
C   -2.60099071     0.72774371     2.30323360
C    3.03097731     1.42347670     1.17751402
C   -3.03097731    -1.42347670     1.17751402
C   -3.03097731     1.42347670    -1.17751402
C    3.03097731    -1.42347670    -1.17751402
C   -3.03097731    -1.42347670    -1.17751402
C    3.03097731     1.42347670    -1.17751402
C    3.03097731    -1.42347670     1.17751402
C   -3.03097731     1.42347670     1.17751402
C    3.48074761     0.69573299     0.00000000
C   -3.48074761    -0.69573299     0.00000000
C   -3.48074761     0.69573299     0.00000000
C    3.48074761    -0.69573299     0.00000000
C    0.69573299     0.00000000     3.48074761
C   -0.69573299     0.00000000     3.48074761
C   -0.69573299     0.00000000    -3.48074761
C    0.69573299     0.00000000    -3.48074761